/*--------------------------------*- C++ -*----------------------------------*\
| =========                 |                                                 |
| \\      /  F ield         | OpenFOAM: The Open Source CFD Toolbox           |
|  \\    /   O peration     | Version:  2.2.2                                 |
|   \\  /    A nd           | Web:      www.OpenFOAM.org                      |
|    \\/     M anipulation  |                                                 |
\*---------------------------------------------------------------------------*/
FoamFile
{
    version     2.0;
    format      ascii;
    class       volScalarField;
    location    "0";
    object      nut;
}
// * * * * * * * * * * * * * * * * * * * * * * * * * * * * * * * * * * * * * //

dimensions      [0 2 -1 0 0 0 0];

internalField   uniform 0;

boundaryField
{

    Aircraft
    {
	type	  	nutkWallFunction;
        value           uniform 0;
    }


    "(Walls_Slip|Wall_Inlet|Wall_Outlet)"
    {
        type            calculated;
        value           uniform 0;
    }

    Wall_Symmetry
    {	
	type 		symmetry;
    }

    "procBoundary.*"
    {
        type            processor;
        value           uniform 0;
    }
}


// ************************************************************************* //
