/*--------------------------------*- C++ -*----------------------------------*\
| =========                 |                                                 |
| \\      /  F ield         | OpenFOAM: The Open Source CFD Toolbox           |
|  \\    /   O peration     | Version:  2.2.2                                 |
|   \\  /    A nd           | Web:      www.OpenFOAM.org                      |
|    \\/     M anipulation  |                                                 |
\*---------------------------------------------------------------------------*/
FoamFile
{
    version     2.0;
    format      ascii;
    class       volScalarField;
    object      p;
}
// * * * * * * * * * * * * * * * * * * * * * * * * * * * * * * * * * * * * * //

#include        "include/initialConditions"

dimensions      [0 2 -2 0 0 0 0];

internalField   uniform $pressure;

boundaryField
{

    Wall_Inlet
    {
        type            zeroGradient;
    }

    Wall_Outlet
    {
        type            fixedValue;
        value           $internalField;
    }

    Aircraft
    {
        type            zeroGradient;
    }


    "procBoundary.*"
    {
        type            processor;
        value           $internalField;
    }

    Walls_Slip
    {
      	type 		slip;
    }

    Wall_Symmetry
    {
	type 		symmetry;
    }

}

// ************************************************************************* //
