/*--------------------------------*- C++ -*----------------------------------*\
| =========                 |                                                 |
| \\      /  F ield         | OpenFOAM: The Open Source CFD Toolbox           |
|  \\    /   O peration     | Version:  2.2.2                                 |
|   \\  /    A nd           | Web:      www.OpenFOAM.org                      |
|    \\/     M anipulation  |                                                 |
\*---------------------------------------------------------------------------*/
FoamFile
{
    version     2.0;
    format      ascii;
    class       dictionary;
    location    "system";
    object      controlDict;
}
// * * * * * * * * * * * * * * * * * * * * * * * * * * * * * * * * * * * * * //

application     simpleFoam;

startFrom       latestTime;

startTime       0;

stopAt          endTime;

endTime         4300;

deltaT          1;

writeControl    runTime;

writeInterval   500;

purgeWrite      3;

writeFormat     ascii;

writePrecision  6;

writeCompression off;

timeFormat      general;

timePrecision   6;

runTimeModifiable true;

functions
{
    #include "forceCoeffs"
    
    fieldAverage1
    {
        type            fieldAverage;
        functionObjectLibs ("libfieldFunctionObjects.so");
        enabled         true;
        outputControl   outputTime;

        fields
        (
            U
            {
                mean        on;
                prime2Mean  off;
                base        time;
            }

            p
            {
                mean        on;
                prime2Mean  off;
                base        time;
            }
        );
    }
}


// ************************************************************************* //
